gdb_10
  -OEChem-11232211373D

  6  5  0     0  0  0  0  0  0999 V2000
   -0.0179    1.4671    0.0101 C   0  0  0  0  0  0  0  0  0  0  0  0
    0.0017    0.0104    0.0021 C   0  0  0  0  0  0  0  0  0  0  0  0
    0.0177   -1.1445   -0.0042 N   0  0  0  0  0  0  0  0  0  0  0  0
    1.0020    1.8609    0.0025 H   0  0  0  0  0  0  0  0  0  0  0  0
   -0.5440    1.8448   -0.8708 H   0  0  0  0  0  0  0  0  0  0  0  0
   -0.5271    1.8352    0.9049 H   0  0  0  0  0  0  0  0  0  0  0  0
  1  2  1  0  0  0  0
  1  4  1  0  0  0  0
  1  5  1  0  0  0  0
  1  6  1  0  0  0  0
  2  3  3  0  0  0  0
M  END
$$$$
gdb_10
  -OEChem-11232211373D

  6  5  0     0  0  0  0  0  0999 V2000
   -0.0179    1.4671    0.0101 C   0  0  0  0  0  0  0  0  0  0  0  0
    0.0017    0.0104    0.0021 C   0  0  0  0  0  0  0  0  0  0  0  0
    0.0177   -1.1445   -0.0042 N   0  0  0  0  0  0  0  0  0  0  0  0
    1.0020    1.8609    0.0025 H   0  0  0  0  0  0  0  0  0  0  0  0
   -0.5440    1.8448   -0.8708 H   0  0  0  0  0  0  0  0  0  0  0  0
   -0.5271    1.8352    0.9049 H   0  0  0  0  0  0  0  0  0  0  0  0
  1  2  1  0  0  0  0
  1  4  1  0  0  0  0
  1  5  1  0  0  0  0
  1  6  1  0  0  0  0
  2  3  3  0  0  0  0
M  END
$$$$
gdb_10
  -OEChem-11232211373D

  6  5  0     0  0  0  0  0  0999 V2000
   -0.0179    1.4671    0.0101 C   0  0  0  0  0  0  0  0  0  0  0  0
    0.0017    0.0104    0.0021 C   0  0  0  0  0  0  0  0  0  0  0  0
    0.0177   -1.1445   -0.0042 N   0  0  0  0  0  0  0  0  0  0  0  0
    1.0020    1.8609    0.0025 H   0  0  0  0  0  0  0  0  0  0  0  0
   -0.5440    1.8448   -0.8708 H   0  0  0  0  0  0  0  0  0  0  0  0
   -0.5271    1.8352    0.9049 H   0  0  0  0  0  0  0  0  0  0  0  0
  1  2  1  0  0  0  0
  1  4  1  0  0  0  0
  1  5  1  0  0  0  0
  1  6  1  0  0  0  0
  2  3  3  0  0  0  0
M  END
$$$$
gdb_10
  -OEChem-11232211373D

  6  5  0     0  0  0  0  0  0999 V2000
   -0.0179    1.4671    0.0101 C   0  0  0  0  0  0  0  0  0  0  0  0
    0.0017    0.0104    0.0021 C   0  0  0  0  0  0  0  0  0  0  0  0
    0.0177   -1.1445   -0.0042 N   0  0  0  0  0  0  0  0  0  0  0  0
    1.0020    1.8609    0.0025 H   0  0  0  0  0  0  0  0  0  0  0  0
   -0.5440    1.8448   -0.8708 H   0  0  0  0  0  0  0  0  0  0  0  0
   -0.5271    1.8352    0.9049 H   0  0  0  0  0  0  0  0  0  0  0  0
  1  2  1  0  0  0  0
  1  4  1  0  0  0  0
  1  5  1  0  0  0  0
  1  6  1  0  0  0  0
  2  3  3  0  0  0  0
M  END
$$$$
gdb_10
  -OEChem-11232211373D

  6  5  0     0  0  0  0  0  0999 V2000
   -0.0179    1.4671    0.0101 C   0  0  0  0  0  0  0  0  0  0  0  0
    0.0017    0.0104    0.0021 C   0  0  0  0  0  0  0  0  0  0  0  0
    0.0177   -1.1445   -0.0042 N   0  0  0  0  0  0  0  0  0  0  0  0
    1.0020    1.8609    0.0025 H   0  0  0  0  0  0  0  0  0  0  0  0
   -0.5440    1.8448   -0.8708 H   0  0  0  0  0  0  0  0  0  0  0  0
   -0.5271    1.8352    0.9049 H   0  0  0  0  0  0  0  0  0  0  0  0
  1  2  1  0  0  0  0
  1  4  1  0  0  0  0
  1  5  1  0  0  0  0
  1  6  1  0  0  0  0
  2  3  3  0  0  0  0
M  END
$$$$
gdb_10
  -OEChem-11232211373D

  6  5  0     0  0  0  0  0  0999 V2000
   -0.0179    1.4671    0.0101 C   0  0  0  0  0  0  0  0  0  0  0  0
    0.0017    0.0104    0.0021 C   0  0  0  0  0  0  0  0  0  0  0  0
    0.0177   -1.1445   -0.0042 N   0  0  0  0  0  0  0  0  0  0  0  0
    1.0020    1.8609    0.0025 H   0  0  0  0  0  0  0  0  0  0  0  0
   -0.5440    1.8448   -0.8708 H   0  0  0  0  0  0  0  0  0  0  0  0
   -0.5271    1.8352    0.9049 H   0  0  0  0  0  0  0  0  0  0  0  0
  1  2  1  0  0  0  0
  1  4  1  0  0  0  0
  1  5  1  0  0  0  0
  1  6  1  0  0  0  0
  2  3  3  0  0  0  0
M  END
$$$$
gdb_10
  -OEChem-11232211373D

  6  5  0     0  0  0  0  0  0999 V2000
   -0.0179    1.4671    0.0101 C   0  0  0  0  0  0  0  0  0  0  0  0
    0.0017    0.0104    0.0021 C   0  0  0  0  0  0  0  0  0  0  0  0
    0.0177   -1.1445   -0.0042 N   0  0  0  0  0  0  0  0  0  0  0  0
    1.0020    1.8609    0.0025 H   0  0  0  0  0  0  0  0  0  0  0  0
   -0.5440    1.8448   -0.8708 H   0  0  0  0  0  0  0  0  0  0  0  0
   -0.5271    1.8352    0.9049 H   0  0  0  0  0  0  0  0  0  0  0  0
  1  2  1  0  0  0  0
  1  4  1  0  0  0  0
  1  5  1  0  0  0  0
  1  6  1  0  0  0  0
  2  3  3  0  0  0  0
M  END
$$$$
gdb_10
  -OEChem-11232211373D

  6  5  0     0  0  0  0  0  0999 V2000
   -0.0179    1.4671    0.0101 C   0  0  0  0  0  0  0  0  0  0  0  0
    0.0017    0.0104    0.0021 C   0  0  0  0  0  0  0  0  0  0  0  0
    0.0177   -1.1445   -0.0042 N   0  0  0  0  0  0  0  0  0  0  0  0
    1.0020    1.8609    0.0025 H   0  0  0  0  0  0  0  0  0  0  0  0
   -0.5440    1.8448   -0.8708 H   0  0  0  0  0  0  0  0  0  0  0  0
   -0.5271    1.8352    0.9049 H   0  0  0  0  0  0  0  0  0  0  0  0
  1  2  1  0  0  0  0
  1  4  1  0  0  0  0
  1  5  1  0  0  0  0
  1  6  1  0  0  0  0
  2  3  3  0  0  0  0
M  END
$$$$
gdb_10
  -OEChem-11232211373D

  6  5  0     0  0  0  0  0  0999 V2000
   -0.0179    1.4671    0.0101 C   0  0  0  0  0  0  0  0  0  0  0  0
    0.0017    0.0104    0.0021 C   0  0  0  0  0  0  0  0  0  0  0  0
    0.0177   -1.1445   -0.0042 N   0  0  0  0  0  0  0  0  0  0  0  0
    1.0020    1.8609    0.0025 H   0  0  0  0  0  0  0  0  0  0  0  0
   -0.5440    1.8448   -0.8708 H   0  0  0  0  0  0  0  0  0  0  0  0
   -0.5271    1.8352    0.9049 H   0  0  0  0  0  0  0  0  0  0  0  0
  1  2  1  0  0  0  0
  1  4  1  0  0  0  0
  1  5  1  0  0  0  0
  1  6  1  0  0  0  0
  2  3  3  0  0  0  0
M  END
$$$$
gdb_10
  -OEChem-11232211373D

  6  5  0     0  0  0  0  0  0999 V2000
   -0.0179    1.4671    0.0101 C   0  0  0  0  0  0  0  0  0  0  0  0
    0.0017    0.0104    0.0021 C   0  0  0  0  0  0  0  0  0  0  0  0
    0.0177   -1.1445   -0.0042 N   0  0  0  0  0  0  0  0  0  0  0  0
    1.0020    1.8609    0.0025 H   0  0  0  0  0  0  0  0  0  0  0  0
   -0.5440    1.8448   -0.8708 H   0  0  0  0  0  0  0  0  0  0  0  0
   -0.5271    1.8352    0.9049 H   0  0  0  0  0  0  0  0  0  0  0  0
  1  2  1  0  0  0  0
  1  4  1  0  0  0  0
  1  5  1  0  0  0  0
  1  6  1  0  0  0  0
  2  3  3  0  0  0  0
M  END
$$$$
